!----------------------------------------------------------------------------------
! Users should add all user specific namelist changes below in the form of 
! namelist_var = new_namelist_value 
!
! Include namelist variables for drv_flds_in ONLY if both -no-megan and -no-fire_emis 
! are NOT set and/or the -drydep option IS set in the CLM_NAMELIST_OPTS env variable.
!
! EXCEPTIONS: 
! Set use_cndv           by the compset you use and the CLM_BLDNML_OPTS -dynamic_vegetation setting
! Set use_vichydro       by the compset you use and the CLM_BLDNML_OPTS -vichydro           setting
! Set use_cn             by the compset you use and CLM_BLDNML_OPTS -bgc  setting
! Set use_crop           by the compset you use and CLM_BLDNML_OPTS -crop setting
! Set spinup_state       by the CLM_BLDNML_OPTS -bgc_spinup      setting
! Set irrigate           by the CLM_BLDNML_OPTS -irrig           setting
! Set co2_ppmv           with CCSM_CO2_PPMV                      option
! Set dtime              with L_NCPL                             option
! Set fatmlndfrc         with LND_DOMAIN_PATH/LND_DOMAIN_FILE    options
! Set finidat            with RUN_REFCASE/RUN_REFDATE/RUN_REFTOD options for hybrid or branch cases
!                        (includes $inst_string for multi-ensemble cases)
! Set glc_smb            with GLC_SMB                            option
! Set maxpatch_glcmec    with GLC_NEC                            option
! Set glc_do_dynglacier  with GLC_TWO_WAY_COUPLING               env variable
!----------------------------------------------------------------------------------
!finidat = ''
!hist_nhtfrq = -1
!hist_nhtfrq = -24	! write daily output for now, for a whole year (will be big, but delete once it looks okay)
! actually, leave as monthly means for the full year run?

!mml_surdat = '/glade/u/home/mlague/cesmruns/simple_land/inputs/miocene/slim_realistic_fromCLM5_miocene_snowmask_1850vals_annual_f19_20200327.nc'
mml_surdat = '/gpfs/u/home/mlague/cesmruns/simple_land/inputs/realistic/slim_realistic_fromCLM5_alb1850_hc1850_rs1850_f19_20190110.nc'
!mml_surdat = '/gpfs/u/home/mlague/cesmruns/simple_land/inputs/global_pert/Cheyenne_inputs/globalconst_alpha0.2_soilcv2e6_hc5.0_rs100.0_glc_hc0.01_f19_20171117.nc'

! supress ALL h0 fields, then explicitly tell it to just print out the MML fields

hist_empty_htapes = .true.

hist_fincl1 = 'MML_snowmaskdepth', 'MML_evap_rs', 'MML_bucket_cap', 'MML_soiltype', 'MML_roughness', 'MML_fsds','MML_fsdsnd','MML_fsdsni','MML_fsdsvd','MML_fsdsvi', 'MML_lwdn', 'MML_zref', 'MML_tbot', 'MML_thref', 'MML_qbot', 'MML_uref', 'MML_eref', 'MML_pbot','MML_psrf','MML_pco2', 'MML_rhomol', 'MML_rhoair', 'MML_cpair', 'MML_prec_liq', 'MML_prec_frz', 'MML_ts', 'MML_qs', 'MML_qa', 'MML_swabs', 'MML_fsr','MML_fsrnd','MML_fsrni','MML_fsrvd','MML_fsrvi','MML_snowmelt','MML_l2a_taux','MML_l2a_tauy', 'MML_lwup', 'MML_shflx', 'MML_lhflx', 'MML_gsoi', 'MML_gsnow', 'MML_evap', 'MML_ustar', 'MML_tstar', 'MML_qstar', 'MML_tvstar', 'MML_obu', 'MML_ram', 'MML_rah', 'MML_z0m', 'MML_z0h', 'MML_alb', 'MML_fsns', 'MML_flns', 'MML_maxice', 'MML_soilz', 'MML_soil_t', 'MML_soil_liq', 'MML_soil_ice', 'MML_dz', 'MML_zh', 'MML_tk', 'MML_tkh', 'MML_dtsoi', 'MML_cv', 'MML_water', 'MML_snow', 'MML_runoff', 'MML_l2a_tref2m', 'MML_l2a_qref2m', 'MML_l2a_uref10m', 'MML_diag1_1d', 'MML_diag2_1d', 'MML_diag3_1d', 'MML_diag1_2d', 'MML_diag2_2d', 'MML_diag3_2d', 'MML_q_excess','MML_lh_excess','MML_q_demand','MML_lh_demand','mml_err_h2o','mml_err_h2osno','mml_err_seb','mml_err_soi','mml_err_sol','WIND','THBOT','RAIN','SNOW','RH','MML_res_tot','MML_res_effective','MML_beta' 

! MML: check if I can have multiple lines of the same thing, to make it easier to edi! t ... answer: no. It just uses the last hist_fincl1 entry as the only one. What about using & to extend the line? Nope, that doesn't work either...

use_init_interp = .true.

init_interp_fill_missing_with_natveg = .true.

