&aerosol_nl
 aer_drydep_list		= 'bc_a1', 'dst_a1', 'dst_a3', 'ncl_a1', 'ncl_a2', 'ncl_a3', 'num_a1', 'num_a2', 'num_a3', 'pom_a1', 'so4_a1',
         'so4_a2', 'so4_a3', 'soa_a1', 'soa_a2'
 aer_wetdep_list		= 'bc_a1', 'dst_a1', 'dst_a3', 'ncl_a1', 'ncl_a2', 'ncl_a3', 'num_a1', 'num_a2', 'num_a3', 'pom_a1', 'so4_a1',
         'so4_a2', 'so4_a3', 'soa_a1', 'soa_a2'
 modal_accum_coarse_exch		= .false.
 seasalt_emis_scale		= 1.35D0
 sol_factb_interstitial		= 0.1D0
 sol_facti_cloud_borne		= 1.0D0
 sol_factic_interstitial		= 0.4D0
/
&blj_nl
 do_beljaars		=  .false. 
/
&cam_initfiles_nl
 bnd_topo		= '/glade/p/cesmdata/cseg/inputdata/atm/cam/topo/fv_1.9x2.5_nc3000_Nsw084_Nrs016_Co120_Fi001_ZR_061116.nc'
 ncdata		= '/glade/p/cesmdata/cseg/inputdata/atm/cam/inic/fv/cami-mam3_0000-01-01_1.9x2.5_L30_c090306.nc'
 use_topo_file		=  .true.  
/
&check_energy_nl
 print_energy_errors		= .false.
/
&chem_inparm
 chem_use_chemtrop		= .true.
 clim_soilw_file		= '/glade/p/cesmdata/cseg/inputdata/atm/cam/chem/trop_mozart/dvel/clim_soilw.nc'
 depvel_file		= '/glade/p/cesmdata/cseg/inputdata/atm/cam/chem/trop_mozart/dvel/depvel_monthly.nc'
 depvel_lnd_file		= '/glade/p/cesmdata/cseg/inputdata/atm/cam/chem/trop_mozart/dvel/regrid_vegetation.nc'
 exo_coldens_file		= '/glade/p/cesmdata/cseg/inputdata/atm/cam/chem/trop_mozart/phot/exo_coldens.nc'
 ext_frc_cycle_yr		= 2000
 ext_frc_specifier		= 'SO2         -> /glade/p/cesmdata/cseg/inputdata/atm/cam/chem/trop_mozart_aero/emis/ar5_mam3_so2_elev_2000_c120315.nc',
         'bc_a1       -> /glade/p/cesmdata/cseg/inputdata/atm/cam/chem/trop_mozart_aero/emis/ar5_mam3_bc_elev_2000_c120315.nc',
         'num_a1      -> /glade/p/cesmdata/cseg/inputdata/atm/cam/chem/trop_mozart_aero/emis/ar5_mam3_num_a1_elev_2000_c120315.nc',
         'num_a2      -> /glade/p/cesmdata/cseg/inputdata/atm/cam/chem/trop_mozart_aero/emis/ar5_mam3_num_a2_elev_2000_c120315.nc',
         'pom_a1      -> /glade/p/cesmdata/cseg/inputdata/atm/cam/chem/trop_mozart_aero/emis/ar5_mam3_pom_elev_2000_c130422.nc',
         'so4_a1      -> /glade/p/cesmdata/cseg/inputdata/atm/cam/chem/trop_mozart_aero/emis/ar5_mam3_so4_a1_elev_2000_c120315.nc',
         'so4_a2      -> /glade/p/cesmdata/cseg/inputdata/atm/cam/chem/trop_mozart_aero/emis/ar5_mam3_so4_a2_elev_2000_c120315.nc'
 ext_frc_type		= 'CYCLICAL'
 fstrat_list		= ' '
 rsf_file		= '/glade/p/cesmdata/cseg/inputdata/atm/waccm/phot/RSF_GT200nm_v3.0_c080811.nc'
 season_wes_file		= '/glade/p/cesmdata/cseg/inputdata/atm/cam/chem/trop_mozart/dvel/season_wes.nc'
 srf_emis_cycle_yr		= 2000
 srf_emis_specifier		= 'DMS       -> /glade/p/cesmdata/cseg/inputdata/atm/cam/chem/trop_mozart_aero/emis/aerocom_mam3_dms_surf_2000_c120315.nc',
         'SO2       -> /glade/p/cesmdata/cseg/inputdata/atm/cam/chem/trop_mozart_aero/emis/ar5_mam3_so2_surf_2000_c120315.nc',
         'SOAG      -> /glade/p/cesmdata/cseg/inputdata/atm/cam/chem/trop_mozart_aero/emis/ar5_mam3_soag_1.5_surf_2000_c130422.nc',
         'bc_a1     -> /glade/p/cesmdata/cseg/inputdata/atm/cam/chem/trop_mozart_aero/emis/ar5_mam3_bc_surf_2000_c120315.nc',
         'num_a1    -> /glade/p/cesmdata/cseg/inputdata/atm/cam/chem/trop_mozart_aero/emis/ar5_mam3_num_a1_surf_2000_c120315.nc',
         'num_a2    -> /glade/p/cesmdata/cseg/inputdata/atm/cam/chem/trop_mozart_aero/emis/ar5_mam3_num_a2_surf_2000_c120315.nc',
         'pom_a1    -> /glade/p/cesmdata/cseg/inputdata/atm/cam/chem/trop_mozart_aero/emis/ar5_mam3_pom_surf_2000_c130422.nc',
         'so4_a1    -> /glade/p/cesmdata/cseg/inputdata/atm/cam/chem/trop_mozart_aero/emis/ar5_mam3_so4_a1_surf_2000_c120315.nc',
         'so4_a2    -> /glade/p/cesmdata/cseg/inputdata/atm/cam/chem/trop_mozart_aero/emis/ar5_mam3_so4_a2_surf_2000_c120315.nc'
 srf_emis_type		= 'CYCLICAL'
 tracer_cnst_cycle_yr		= 2000
 tracer_cnst_datapath		= '/glade/p/cesmdata/cseg/inputdata/atm/cam/chem/trop_mozart_aero/oxid'
 tracer_cnst_file		= 'oxid_1.9x2.5_L26_1850-2005_c091123.nc'
 tracer_cnst_filelist		= 'oxid_1.9x2.5_L26_clim_list.c090805.txt'
 tracer_cnst_specifier		= 'O3','OH','NO3','HO2'
 tracer_cnst_type		= 'CYCLICAL'
 xactive_prates		= .false.
 xs_long_file		= '/glade/p/cesmdata/cseg/inputdata/atm/waccm/phot/temp_prs_GT200nm_JPL10_c140624.nc'
/
&chem_surfvals_nl
 ch4vmr		= 1760.0e-9
 co2vmr		= 734.0e-6
 f11vmr		= 653.45e-12
 f12vmr		= 535.0e-12
 flbc_list		= ' '
 n2ovmr		= 316.0e-9
/
&cldfrc2m_nl
 cldfrc2m_do_subgrid_growth		= .false.
 cldfrc2m_rhmaxi		=   1.1D0  
 cldfrc2m_rhmaxis		=   1.1D0  
 cldfrc2m_rhmini		=   0.80D0  
 cldfrc2m_rhminis		=   1.0D0 
/
&cldfrc_nl
 cldfrc_dp1		=  0.10D0 
 cldfrc_dp2		=  500.0D0 
 cldfrc_freeze_dry		= .true.
 cldfrc_ice		= .true.
 cldfrc_icecrit		=  0.93D0 
 cldfrc_iceopt		=  5 
 cldfrc_premib		=  700.0D2 
 cldfrc_premit		=  40000.0D0 
 cldfrc_rhminh		=  0.800D0 
 cldfrc_rhminl		=  0.8875D0 
 cldfrc_rhminl_adj_land		=  0.100D0 
 cldfrc_sh1		=  0.04D0 
 cldfrc_sh2		=  500.0D0 
/
&conv_water_nl
 conv_water_frac_limit		=  0.01d0  
 conv_water_in_rad		=  1 
/
&dust_nl
 dust_emis_fact		= 0.35D0
 soil_erod_file		= '/glade/p/cesmdata/cseg/inputdata/atm/cam/dst/dst_source2x2_cam5.4_c150327.nc'
/
&dyn_fv_inparm
 fv_del2coef		= 3.e+5
 fv_div24del2flag		=  4
 fv_fft_flt		= 1
 fv_filtcw		= 0
 fv_nspltvrm		= 1
/
&eddy_diff_nl
 eddy_lbulk_max		= 40.D3
 eddy_leng_max		= 40.D3
 eddy_max_bot_pressure		= 100.D3
 eddy_moist_entrain_a2l		= 30.D0
 kv_freetrop_scale		= 1.D0
 kv_top_pressure		= 0.D0
 kv_top_scale		= 1.D0
/
&gw_drag_nl
 effgw_oro		= 0.125D0
 fcrit2		= 1.0
 gw_apply_tndmax		= .true. 
 gw_dc		= 0.D0
 gw_dc_long		= 0.D0
 gw_limit_tau_without_eff		= .false.
 gw_lndscl_sgh		= .true. 
 gw_oro_south_fac		= 1.d0   
 gw_prndl		= 0.25d0 
 pgwv		= 0
 pgwv_long		= 0
 tau_0_ubc		= .false.
 use_gw_rdg_beta		= .false.
 use_gw_rdg_gamma		= .false.
/
&gw_rdg_nl
 gw_rdg_do_divstream		= .true.
/
&micro_mg_nl
 micro_do_sb_physics		= .false.
 micro_mg_adjust_cpt		= .false.
 micro_mg_berg_eff_factor		=   1.0D0    
 micro_mg_dcs		=     400.D-6    
 micro_mg_num_steps		=     1          
 micro_mg_precip_frac_method		= 'max_overlap'
 micro_mg_sub_version		=     0          
 micro_mg_version		=     1          
/
&modal_aer_opt_nl
 water_refindex_file		= '/glade/p/cesmdata/cseg/inputdata/atm/cam/physprops/water_refindex_rrtmg_c080910.nc'
/
&nucleate_ice_nl
 nucleate_ice_incloud		= .true.
 nucleate_ice_strat		= 1.0D0
 nucleate_ice_subgrid		= 1.2D0
 nucleate_ice_subgrid_strat		= 1.2D0
 nucleate_ice_use_troplev		= .true.
 use_preexisting_ice		= .false.
/
&phys_ctl_nl
 cam_chempkg		= 'trop_mam3'
 cam_physpkg		= 'cam5'
 cld_macmic_num_steps		=                                             1 
 deep_scheme		= 'ZM'
 do_clubb_sgs		=  .false. 
 eddy_scheme		= 'diag_TKE'
 history_aero_optics		=           .false.  
 history_aerosol		=               .false.  
 history_amwg		=                  .true.   
 history_budget		=                .false.  
 history_chemistry		=             .true.   
 history_chemspecies_srf		=       .true.   
 history_clubb		=                 .true.   
 history_dust		=                  .false.  
 history_eddy		=                  .false.  
 history_vdiag		=                 .false.  
 history_waccm		=                 .false.  
 history_waccmx		=                .false.  
 macrop_scheme		= 'park'
 microp_scheme		= 'MG'
 radiation_scheme		= 'rrtmg'
 shallow_scheme		= 'UW'
 srf_flux_avg		= 0
 state_debug_checks		= .true.
 use_gw_convect_dp		= .false.
 use_gw_convect_sh		= .false.
 use_gw_front		= .false.
 use_gw_front_igw		= .false.
 use_gw_oro		= .true.
 use_hetfrz_classnuc		= .false.
 use_simple_phys		= .false.
 use_subcol_microp		= .false.
 waccmx_opt		= 'off'
/
&prescribed_ozone_nl
 prescribed_ozone_cycle_yr		= 2000
 prescribed_ozone_datapath		= '/glade/p/cesmdata/cseg/inputdata/atm/cam/ozone'
 prescribed_ozone_file		= 'ozone_1.9x2.5_L26_2000clim_c091112.nc'
 prescribed_ozone_name		= 'O3'
 prescribed_ozone_type		= 'CYCLICAL'
/
&qneg_nl
 print_qneg_warn		= 'summary'
/
&rad_cnst_nl
 icecldoptics		= 'mitchell'
 iceopticsfile		= '/glade/p/cesmdata/cseg/inputdata/atm/cam/physprops/iceoptics_c080917.nc'
 liqcldoptics		= 'gammadist'
 liqopticsfile		= '/glade/p/cesmdata/cseg/inputdata/atm/cam/physprops/F_nwvl200_mu20_lam50_res64_t298_c080428.nc'
 mode_defs		= 'mam3_mode1:accum:=', 'A:num_a1:N:num_c1:num_mr:+',
         'A:so4_a1:N:so4_c1:sulfate:/glade/p/cesmdata/cseg/inputdata/atm/cam/physprops/sulfate_rrtmg_c080918.nc:+', 'A:pom_a1:N:pom_c1:p-organic:/glade/p/cesmdata/cseg/inputdata/atm/cam/physprops/ocpho_rrtmg_c101112.nc:+',
         'A:soa_a1:N:soa_c1:s-organic:/glade/p/cesmdata/cseg/inputdata/atm/cam/physprops/ocphi_rrtmg_c100508.nc:+', 'A:bc_a1:N:bc_c1:black-c:/glade/p/cesmdata/cseg/inputdata/atm/cam/physprops/bcpho_rrtmg_c100508.nc:+',
         'A:dst_a1:N:dst_c1:dust:/glade/p/cesmdata/cseg/inputdata/atm/cam/physprops/dust_aeronet_rrtmg_c141106.nc:+', 'A:ncl_a1:N:ncl_c1:seasalt:/glade/p/cesmdata/cseg/inputdata/atm/cam/physprops/ssam_rrtmg_c100508.nc',
         'mam3_mode2:aitken:=', 'A:num_a2:N:num_c2:num_mr:+',
         'A:so4_a2:N:so4_c2:sulfate:/glade/p/cesmdata/cseg/inputdata/atm/cam/physprops/sulfate_rrtmg_c080918.nc:+', 'A:soa_a2:N:soa_c2:s-organic:/glade/p/cesmdata/cseg/inputdata/atm/cam/physprops/ocphi_rrtmg_c100508.nc:+',
         'A:ncl_a2:N:ncl_c2:seasalt:/glade/p/cesmdata/cseg/inputdata/atm/cam/physprops/ssam_rrtmg_c100508.nc', 'mam3_mode3:coarse:=',
         'A:num_a3:N:num_c3:num_mr:+', 'A:dst_a3:N:dst_c3:dust:/glade/p/cesmdata/cseg/inputdata/atm/cam/physprops/dust_aeronet_rrtmg_c141106.nc:+',
         'A:ncl_a3:N:ncl_c3:seasalt:/glade/p/cesmdata/cseg/inputdata/atm/cam/physprops/ssam_rrtmg_c100508.nc:+', 'A:so4_a3:N:so4_c3:sulfate:/glade/p/cesmdata/cseg/inputdata/atm/cam/physprops/sulfate_rrtmg_c080918.nc'
 rad_climate		= 'A:Q:H2O', 'N:O2:O2', 'N:CO2:CO2',
         'N:ozone:O3', 'N:N2O:N2O', 'N:CH4:CH4',
         'N:CFC11:CFC11', 'N:CFC12:CFC12', 'M:mam3_mode1:/glade/p/cesmdata/cseg/inputdata/atm/cam/physprops/mam4_mode1_rrtmg_aeronetdust_c141106.nc',
         'M:mam3_mode2:/glade/p/cesmdata/cseg/inputdata/atm/cam/physprops/mam4_mode2_rrtmg_aitkendust_c141106.nc', 'M:mam3_mode3:/glade/p/cesmdata/cseg/inputdata/atm/cam/physprops/mam4_mode3_rrtmg_aeronetdust_c141106.nc'
/
&ref_pres_nl
 clim_modal_aero_top_press		=  1.D-4 
 do_molec_press		=  0.1D0 
 molec_diff_bot_press		=  50.D0 
 trop_cloud_top_press		=       1.D2 
/
&solar_data_opts
 solar_htng_spctrl_scl		= .true.
 solar_irrad_data_file		= '/glade/p/cesmdata/cseg/inputdata/atm/cam/solar/solar_ave_sc19-sc23.c090810.nc'
/
&spmd_fv_inparm
 npr_yz		= 32,9,9,32
/
&tms_nl
 do_tms		=  .true.  
 tms_orocnst		=  1.0D0   
 tms_z0fac		=  0.075D0 
/
&tropopause_nl
 tropopause_climo_file		= '/glade/p/cesmdata/cseg/inputdata/atm/cam/chem/trop_mozart/ub/clim_p_trop.nc'
/
&uwshcu_nl
 uwshcu_rpen		=    5.0 
/
&vert_diff_nl
 diff_cnsrv_mass_check		=  .false. 
 do_iss		=  .true.  
/
&wetdep_inparm
 gas_wetdep_list		= 'H2O2','H2SO4','SO2'
 gas_wetdep_method		= 'NEU'
/
&zmconv_nl
 zmconv_c0_lnd		=  0.0059D0 
 zmconv_c0_ocn		=  0.0450D0 
 zmconv_ke		=  5.0E-6 
 zmconv_ke_lnd		=  3.0E-6 
 zmconv_microp		=  .false. 
 zmconv_momcd		=  0.4000D0 
 zmconv_momcu		=  0.4000D0 
 zmconv_num_cin		=  5       
 zmconv_org		=  .false. 
/
