&clm_inparm
 albice = 0.50,0.30
 co2_type = 'diagnostic'
 create_crop_landunit = .true.
 dtime = 1800
 fatmlndfrc = '/glade/p/cesmdata/cseg/inputdata/share/domains/domain.lnd.fv1.9x2.5_gx1v6.090206.nc'
 finidat = '/glade/p/cesmdata/cseg/inputdata/lnd/clm2/initdata_map/clmi.IGM2000GSWP3CLM50BGCCROPIRR.2011-01-01.1.9x2.5_gx1v6_gl5_simyr2000_c170419.nc'
 fsurdat = '/glade/p/cesmdata/cseg/inputdata/lnd/clm2/surfdata_map/surfdata_1.9x2.5_16pfts_Irrig_CMIP6_simyr2000_c170824.nc'
 glc_snow_persistence_max_days = 0
 h2osno_max = 10000.0
 hist_empty_htapes = .true.
 hist_fincl1 = 'MML_snowmaskdepth', 'MML_evap_rs', 'MML_bucket_cap', 'MML_soiltype', 'MML_roughness', 'MML_fsds', 'MML_fsdsnd', 'MML_fsdsni',
         'MML_fsdsvd', 'MML_fsdsvi', 'MML_lwdn', 'MML_zref', 'MML_tbot', 'MML_thref', 'MML_qbot', 'MML_uref',
         'MML_eref', 'MML_pbot', 'MML_psrf', 'MML_pco2', 'MML_rhomol', 'MML_rhoair', 'MML_cpair', 'MML_prec_liq',
         'MML_prec_frz', 'MML_ts', 'MML_qs', 'MML_qa', 'MML_swabs', 'MML_fsr', 'MML_fsrnd', 'MML_fsrni',
         'MML_fsrvd', 'MML_fsrvi', 'MML_snowmelt', 'MML_l2a_taux', 'MML_l2a_tauy', 'MML_lwup', 'MML_shflx', 'MML_lhflx',
         'MML_gsoi', 'MML_gsnow', 'MML_evap', 'MML_ustar', 'MML_tstar', 'MML_qstar', 'MML_tvstar', 'MML_obu',
         'MML_ram', 'MML_rah', 'MML_z0m', 'MML_z0h', 'MML_alb', 'MML_fsns', 'MML_flns', 'MML_maxice',
         'MML_soilz', 'MML_soil_t', 'MML_soil_liq', 'MML_soil_ice', 'MML_dz', 'MML_zh', 'MML_tk', 'MML_tkh',
         'MML_dtsoi', 'MML_cv', 'MML_water', 'MML_snow', 'MML_runoff', 'MML_l2a_tref2m', 'MML_l2a_qref2m', 'MML_l2a_uref10m',
         'MML_diag1_1d', 'MML_diag2_1d', 'MML_diag3_1d', 'MML_diag1_2d', 'MML_diag2_2d', 'MML_diag3_2d', 'MML_q_excess', 'MML_lh_excess',
         'MML_q_demand', 'MML_lh_demand', 'mml_err_h2o', 'mml_err_h2osno', 'mml_err_seb', 'mml_err_soi', 'mml_err_sol', 'WIND',
         'THBOT', 'RAIN', 'SNOW', 'RH', 'MML_res_tot', 'MML_res_effective', 'MML_beta'
 int_snow_max = 2000.
 maxpatch_glcmec = 10
 maxpatch_pft = 17
 mml_surdat = '/gpfs/u/home/mlague/cesmruns/simple_land/inputs/realistic/slim_realistic_fromCLM5_alb1850_hc1850_rs1850_f19_20190110.nc'
 n_melt_glcmec = 10.0d00
 nlevsno = 12
 nsegspc = 35
 paramfile = '/glade/p/cesmdata/cseg/inputdata/lnd/clm2/paramdata/clm5_params.c171117.nc'
 soil_layerstruct = '20SL_8.5m'
 use_bedrock = .false.
 use_century_decomp = .true.
 use_cn = .true.
 use_dynroot = .false.
 use_flexiblecn = .true.
 use_fun = .true.
 use_hydrstress = .false.
 use_init_interp = .true.
 use_lch4 = .true.
 use_nitrif_denitrif = .true.
 use_vertsoilc = .true.
/
&lai_streams
/
&atm2lnd_inparm
 glcmec_downscale_longwave = .true.
 lapse_rate = 0.006
 lapse_rate_longwave = 0.032
 longwave_downscaling_limit = 0.5
 precip_repartition_glc_all_rain_t = 0.
 precip_repartition_glc_all_snow_t = -2.
 precip_repartition_nonglc_all_rain_t = 2.
 precip_repartition_nonglc_all_snow_t = 0.
 repartition_rain_snow = .true.
/
&lnd2atm_inparm
 melt_non_icesheet_ice_runoff = .true.
/
&cnvegcarbonstate
 initial_vegc = 100.d00
/
&finidat_consistency_checks
/
&clm_initinterp_inparm
 init_interp_fill_missing_with_natveg = .true.
/
&soilwater_movement_inparm
 dtmin = 60.
 expensive = 42
 flux_calculation = 1
 inexpensive = 1
 lower_boundary_condition = 2
 soilwater_movement_method = 1
 upper_boundary_condition = 1
 verysmall = 1.e-8
 xtolerlower = 1.e-2
 xtolerupper = 1.e-1
/
&rooting_profile_inparm
 rooting_profile_method_carbon = 1
 rooting_profile_method_water = 1
/
&soil_resis_inparm
 soil_resis_method = 1
/
&bgc_shared
 constrain_stress_deciduous_onset = .true.
/
&clmu_inparm
 building_temp_method = 1
 urban_hac = 'ON_WASTEHEAT'
 urban_traffic = .false.
/
&clm_soilstate_inparm
 organic_frac_squared = .false.
/
&clm_soilhydrology_inparm
/
&clm_glacier_behavior
 glacier_region_behavior = 'single_at_atm_topo','virtual','virtual','multiple'
 glacier_region_ice_runoff_behavior = 'melted','melted','remains_ice','remains_ice'
 glacier_region_melt_behavior = 'remains_in_place','replaced_by_ice','replaced_by_ice','replaced_by_ice'
/
&cn_general
/
&clm_canopy_inparm
 leaf_mr_vcm = 0.015d00
/
!#--------------------------------------------------------------------------------------------------------------------------
!# lnd_in:: Comment:
!# This namelist was created using the following command-line:
!#     /glade/u/home/tykukla/cesm_source/SimpleLand/SimpleLand/bld/CLM build-namelist -cimeroot /glade/u/home/tykukla/cesm_source/SimpleLand/SimpleLand/cime/scripts/Tools/../.. -infile /glade/u/home/tykukla/cesmruns/miocene_proj/mio_1850alb_734ppm/Buildconf/clmconf/namelist -csmdata /glade/p/cesmdata/cseg/inputdata -inputdata /glade/u/home/tykukla/cesmruns/miocene_proj/mio_1850alb_734ppm/Buildconf/clm.input_data_list -ignore_ic_year -namelist &clm_inparm  start_ymd=00010101/  -use_case 2000_control -res 1.9x2.5 -clm_start_type default -envxml_dir /glade/u/home/tykukla/cesmruns/miocene_proj/mio_1850alb_734ppm -l_ncpl 48 -lnd_frac /glade/p/cesmdata/cseg/inputdata/share/domains/domain.lnd.fv1.9x2.5_gx1v6.090206.nc -glc_nec 10 -co2_ppmv 734.0 -co2_type diagnostic -config /glade/u/home/tykukla/cesmruns/miocene_proj/mio_1850alb_734ppm/Buildconf/clmconf/config_cache.xml -bgc bgc -mask gx1v6
!# For help on options use: /glade/u/home/tykukla/cesm_source/SimpleLand/SimpleLand/bld/CLM build-namelist -help
!#--------------------------------------------------------------------------------------------------------------------------
